
#Change buffer size. See the effect of biased error results. When tomography and initial_notification_timing_buffer = 1.

# This file is shared by all tictoc simulations.
# Lines beginning with `#' are comments

#Pattern syntax:

#? : matches any character except dot (.)
#* : matches zero or more characters except dot (.)
#** : matches zero or more characters (any character)
#{a-f} : set: matches a character in the range a-f
#{^a-f}: negated set: matches a character NOT in the range a-f
#{38..150} : numeric range: any number (i.e. sequence of digits) in the range 38..150, inclusive; both limits are optional
#[38..150_2] : index range: any number in square brackets in the range 38..150, inclusive; both limits are optional
#backslash (\) : takes away the special meaning of the subsequent character

#opp_makemake -f --deep -O out -I/Users/takaakimatsuo/Downloads/eigen3 -I.
#opp_makemake -f --deep -O out -I/usr/local/include/eigen3 -I.
#opp_makemake -f --deep -O out -I/home/kaaki/eigen3 -I.
#make
#in networks (or whereever the .ini file is)
#../quisp -m -u Cmdenv -n .. omnetpp.ini -c Linear_Single_MIM
#../quisp -m -u Cmdenv -n .. omnetpp.ini -c Layer2_Simple_MIM_MM
#../quisp -m -u Cmdenv -n .. omnetpp.ini -c Link_Tomography
#../quisp -m -u Cmdenv -n .. omnetpp.ini -c LinkTomography_Linear_Single_MIM_with_darkcount
#../quisp -m -u Cmdenv -n .. omnetpp.ini -c Layer2_Star_allErr
#../quisp -m -u Cmdenv -n .. omnetpp.ini -c Measurement7000_Layer2_Simple_MIM_MM_10km_XXZPuri_no_memErr
#../quisp -m -u Cmdenv -n .. omnetpp.ini -c Layer2_Simple_MIM_MM_XPurirification_30000
# valgrind --leak-check=full ../quisp -m -u Cmdenv -n .. omnetpp.ini -c Linear_Single_MIM
# valgrind --leak-check=full ../quisp -m -u Cmdenv -n .. omnetpp.ini -c Tomography_Linear_One_MM_MIM


############################################################################################
#							General setups for simulations				      			 #
############################################################################################


[General]
seed-set = ${runnumber}   # this is the default =0 results in the same seed every time
sim-time-limit = 100s
# Qnic
#**.buffers = intuniform(7,7)
image-path = "./quisp/images"
**.logger.log_filename = "${resultdir}/${configname}-${runnumber}.jsonl"

**.h_gate_error_rate = 1/2000
**.h_gate_x_error_ratio = 0
**.h_gate_y_error_ratio = 0
**.h_gate_z_error_ratio = 0

**.Measurement_error_rate = 1/2000
**.Measurement_x_error_ratio = 1
**.Measurement_y_error_ratio = 1
**.Measurement_z_error_ratio = 1

**.x_gate_error_rate = 1/2000
**.x_gate_x_error_ratio = 0
**.x_gate_y_error_ratio = 0
**.x_gate_z_error_ratio = 0

**.z_gate_error_rate = 1/2000
**.z_gate_x_error_ratio = 0
**.z_gate_y_error_ratio = 0
**.z_gate_z_error_ratio = 0


#Error on Target, Error on Controlled
**.cnot_gate_error_rate = 1/2000
**.cnot_gate_iz_error_ratio = 1 #checked
**.cnot_gate_zi_error_ratio = 1 #checked
**.cnot_gate_zz_error_ratio = 1 #checked
**.cnot_gate_ix_error_ratio = 1 #checked
**.cnot_gate_xi_error_ratio = 1 #checked
**.cnot_gate_xx_error_ratio = 1 #checked
**.cnot_gate_iy_error_ratio = 1 #checked
**.cnot_gate_yi_error_ratio = 1 #checked
**.cnot_gate_yy_error_ratio = 1 #checked


**.memory_x_error_rate = 1.11111111e-7
**.memory_y_error_rate = 1.11111111e-7
**.memory_z_error_rate = 1.11111111e-7
**.memory_energy_excitation_rate = 0.000198
**.memory_energy_relaxation_rate = 0.00000198
**.memory_completely_mixed_rate = 0


**.initial_notification_timing_buffer = 10 s #when to start the BSA timing notification.
**.TrafficPattern = 1
**.LoneInitiatorAddress = 1

# BSA parameter
**.collection_efficiency = 1
**.darkcount_probability = 10e-8 # 10/s * 10^-9
**.detection_efficiency = 1
**.indistinguishable_time_window = 1.5ns # Schuck et al., PRL 96,
**.photon_detection_per_second = 1000000000

[Config Example_run]
network = networks.Realistic_Layer2_Simple_MIM_MM_10km
seed-set = 0
**.number_of_bellpair = 7000
**.buffers = 100

**.tomography_output_filename = "Example_run"


**.emission_success_probability = 0.46*0.49

# Error on optical qubit in a channel
**.channel_loss_rate = 0.04500741397 # per km. 1 - 10^(-0.2/10)
**.channel_x_error_rate = 0.01
**.channel_z_error_rate = 0.01
**.channel_y_error_rate = 0.01

# BSA parameter
**.collection_efficiency = 1
**.darkcount_probability = 10e-8 # 10/s * 10^-9
**.detection_efficiency = 1
**.indistinguishable_time_window = 1.5ns # Schuck et al., PRL 96,
**.photon_detection_per_second = 1000000000

**.link_tomography = false
**.EndToEndConnection = true
**.initial_purification = 2
**.purification_type = "R1_Single_XZ"



[Config Measurement7000_Layer2_Simple_MIM_MM_5km_DSXZsecondPuri_low_memErr]
network = networks.Realistic_Layer2_Simple_MIM_MM_5km
seed-set = ${0..24}
**.number_of_bellpair = 7000
**.buffers = 100

**.tomography_output_filename = "Fixed_Layer2_Simple_MIM_MM_5km_DSXZsecondPuri_low_memErr"


**.emission_success_probability = 0.46*0.49

# Error on optical qubit in a channel
**.channel_loss_rate = 0.04500741397 # per km. 1 - 10^(-0.2/10)
**.channel_x_error_rate = 0.01
**.channel_z_error_rate = 0.01
**.channel_y_error_rate = 0.01

# BSA parameter
**.collection_efficiency = 1
**.darkcount_probability = 10e-8 # 10/s * 10^-9
**.detection_efficiency = 1
**.indistinguishable_time_window = 1.5ns # Schuck et al., PRL 96,
**.photon_detection_per_second = 1000000000

**.link_tomography = true
**.initial_purification = 1
**.purification_type = "R1_Double_X_Single_Z-R2_Double_Z_Single_X"


[Config Test__Layer2_Simple_MIM_MM_5km_DSXZPuri_low_memErr]
network = networks.Realistic_Layer2_Simple_MIM_MM_5km
seed-set = ${0..24}
**.number_of_bellpair = 7000
**.buffers = 100

**.tomography_output_filename = "Test_Layer2_Simple_MIM_MM_5km_DSXZPuri_low_memErr"


**.emission_success_probability = 0.46*0.49

# Error on optical qubit in a channel
**.channel_loss_rate = 0.04500741397 # per km. 1 - 10^(-0.2/10)
**.channel_x_error_rate = 0.01
**.channel_z_error_rate = 0.01
**.channel_y_error_rate = 0.01

**.link_tomography = true
**.initial_purification = 1
**.purification_type = "R1_Double_XZ-R2_Double_ZX"

[Config Realistic_Layer2_Simple_MIM_MM_all_in_one_Test]
network = networks.Realistic_Layer2_Simple_MIM_MM_all_in_one
seed-set = 1
**.number_of_bellpair = 7000
**.buffers = 50

**.tomography_output_filename = "Realistic_Layer2_Simple_MIM_MM_all_in_one_Test"


**.emission_success_probability = 1

**.Measurement_error_rate = 0
**.Measurement_x_error_ratio = 0
**.Measurement_y_error_ratio = 0
**.Measurement_z_error_ratio = 0


# Error on optical qubit in a channel
**.channel_loss_rate = 0 # per km. 1 - 10^(-0.2/10)
**.channel_x_error_rate = 0
**.channel_z_error_rate = 0
**.channel_y_error_rate = 0

**.memory_x_error_rate = 0
**.memory_y_error_rate = 0
**.memory_z_error_rate = 0
**.memory_energy_excitation_rate = 0
**.memory_energy_relaxation_rate = 0
**.memory_completely_mixed_rate = 0

# Should the "application" be run, or not, once link tomography is complete?
**.EndToEndConnection = true
# Which traffic pattern?
# 1 = single connection from Node 1 to a random location in the network
# 2 = every node selects a random partner
**.TrafficPattern = 2
**.NumberOfResources = 100
**.link_tomography = false
**.NumberOfResources = 1
**.initial_purification = 0
**.purification_type = 0
#**.initial_purification = 1
#**.purification_type = "R1_Single_XZ"



[Config EntanglementSwapping_Realistic_Layer2_Star_Sep_Test]
network = networks.Realistic_Layer2_Star_Sep
seed-set = 1
sim-time-limit = 100s
**.number_of_bellpair = 7000
**.buffers = 100

**.tomography_output_filename = "ES_Realistic_Layer2_Simple_Star_Sep_test"


**.emission_success_probability = 1


**.Measurement_error_rate = 0
**.Measurement_x_error_ratio = 0
**.Measurement_y_error_ratio = 0
**.Measurement_z_error_ratio = 0


**.h_gate_error_rate = 0
**.h_gate_x_error_ratio = 0
**.h_gate_y_error_ratio = 0
**.h_gate_z_error_ratio = 0

**.Measurement_error_rate = 0
**.Measurement_x_error_ratio = 0
**.Measurement_y_error_ratio = 0
**.Measurement_z_error_ratio = 0

**.x_gate_error_rate = 0
**.x_gate_x_error_ratio = 0
**.x_gate_y_error_ratio = 0
**.x_gate_z_error_ratio = 0

**.z_gate_error_rate = 0
**.z_gate_x_error_ratio = 0
**.z_gate_y_error_ratio = 0
**.z_gate_z_error_ratio = 0


#Error on Target, Error on Controlled
**.cnot_gate_error_rate = 0
**.cnot_gate_iz_error_ratio = 0 #checked
**.cnot_gate_zi_error_ratio = 0 #checked
**.cnot_gate_zz_error_ratio = 0 #checked
**.cnot_gate_ix_error_ratio = 0 #checked
**.cnot_gate_xi_error_ratio = 0 #checked
**.cnot_gate_xx_error_ratio = 0 #checked
**.cnot_gate_iy_error_ratio = 0 #checked
**.cnot_gate_yi_error_ratio = 0 #checked
**.cnot_gate_yy_error_ratio = 0 #checked


# Error on optical qubit in a channel
**.channel_loss_rate = 0 # per km. 1 - 10^(-0.2/10)
**.channel_x_error_rate = 0
**.channel_z_error_rate = 0
**.channel_y_error_rate = 0

**.memory_x_error_rate = 0
**.memory_y_error_rate = 0
**.memory_z_error_rate = 0
**.memory_energy_excitation_rate = 0
**.memory_energy_relaxation_rate = 0
**.memory_completely_mixed_rate = 0

# Should the "application" be run, or not, once link tomography is complete?
**.EndToEndConnection = true
# Which traffic pattern?
# 1 = single connection from Node 1 to a random location in the network
# 2 = every node selects a random partner
**.TrafficPattern = 2
**.NumberOfResources = 1
**.link_tomography = false
**.NumberOfResources = 1
**.initial_purification = 0
**.purification_type = 0
#**.initial_purification = 1
#**.purification_type = "R1_Single_XZ"


[Config EntanglementSwapping_Realistic_Layer2_Simple_MIM_MM_Test]
network = networks.Realistic_Layer2_Simple_MIM_MM_5km
sim-time-limit = 100s
seed-set = 1
**.number_of_bellpair = 7000
**.buffers = 100

**.tomography_output_filename = "ES_Realistic_Layer2_Simple_MIM_MM_5km_test"


**.emission_success_probability = 1


**.Measurement_error_rate = 0
**.Measurement_x_error_ratio = 0
**.Measurement_y_error_ratio = 0
**.Measurement_z_error_ratio = 0


# Error on optical qubit in a channel
**.channel_loss_rate = 0 # per km. 1 - 10^(-0.2/10)
**.channel_x_error_rate = 0
**.channel_z_error_rate = 0
**.channel_y_error_rate = 0

**.memory_x_error_rate = 0
**.memory_y_error_rate = 0
**.memory_z_error_rate = 0
**.memory_energy_excitation_rate = 0
**.memory_energy_relaxation_rate = 0
**.memory_completely_mixed_rate = 0

**.EndToEndConnection = true
# Which traffic pattern?
# 1 = single connection from Node 1 to a random location in the network
# 2 = every node selects a random partner
**.TrafficPattern = 1
**.link_tomography = false
**.NumberOfResources = 1
**.initial_purification = 0
**.purification_type = 0


[Config SimultaneousEntanglementSwapping_Realistic_Layer3_Simple_MM_MM_Test]
network = networks.Realistic_Layer3_Simple_MM_MM_5km
seed-set = 4 #2
**.number_of_bellpair = 1
**.buffers = 1

**.tomography_output_filename = "ES_Realistic_Layer2_Simple_MIM_MM_5km_test"


**.emission_success_probability = 1


**.Measurement_error_rate = 0
**.Measurement_x_error_ratio = 0
**.Measurement_y_error_ratio = 0
**.Measurement_z_error_ratio = 0


# Error on optical qubit in a channel
**.channel_loss_rate = 0 # per km. 1 - 10^(-0.2/10)
**.channel_x_error_rate = 0
**.channel_z_error_rate = 0
**.channel_y_error_rate = 0

**.memory_x_error_rate = 0
**.memory_y_error_rate = 0
**.memory_z_error_rate = 0
**.memory_energy_excitation_rate = 0
**.memory_energy_relaxation_rate = 0
**.memory_completely_mixed_rate = 0

**.EndToEndConnection = true
# Which traffic pattern?
# 1 = single connection from Node 1 to a random location in the network
# 2 = every node selects a random partner
#**.TrafficPattern = 2
**.link_tomography = false
**.simultaneous_es_enabled = true
#**.initial_purification = 1




[Config EntanglementSwapping_Purification_Linear_FIVE_MM_Test]
network = networks.Linear_five_MM_network
sim-time-limit = 100s
seed-set = 1
**.number_of_bellpair = 7000
**.buffers = 100

**.tomography_output_filename = "ES_PUR_linear_five_MM_network"


**.emission_success_probability = 1

**.Measurement_error_rate = 0
**.Measurement_x_error_ratio = 0
**.Measurement_y_error_ratio = 0
**.Measurement_z_error_ratio = 0


# Error on optical qubit in a channel
**.channel_loss_rate = 0 # per km. 1 - 10^(-0.2/10)
**.channel_x_error_rate = 0
**.channel_z_error_rate = 0
**.channel_y_error_rate = 0

**.memory_x_error_rate = 0
**.memory_y_error_rate = 0
**.memory_z_error_rate = 0
**.memory_energy_excitation_rate = 0
**.memory_energy_relaxation_rate = 0
**.memory_completely_mixed_rate = 0

**.EndToEndConnection = true
# Which traffic pattern?
# 1 = single connection from Node 1 to a random location in the network
# 2 = every node selects a random partner
**.TrafficPattern = 1
**.LoneInitiatorAddress = 1
**.link_tomography = false
**.NumberOfResources = 1
**.initial_purification = 1
**.purification_type = "R1_Single_X-R1_Single_Z"
**.num_remote_purification = 1


[Config EntanglementSwapping_Linear_FIVE_MM_Test]
network = networks.Linear_five_MM_network
sim-time-limit = 100s
seed-set = 1
**.number_of_bellpair = 10
**.buffers = 10

**.tomography_output_filename = "ES_linear_five_MM_network"


**.emission_success_probability = 1

**.Measurement_error_rate = 0
**.Measurement_x_error_ratio = 0
**.Measurement_y_error_ratio = 0
**.Measurement_z_error_ratio = 0


# Error on optical qubit in a channel
**.channel_loss_rate = 0 # per km. 1 - 10^(-0.2/10)
**.channel_x_error_rate = 0
**.channel_z_error_rate = 0
**.channel_y_error_rate = 0

**.memory_x_error_rate = 0
**.memory_y_error_rate = 0
**.memory_z_error_rate = 0
**.memory_energy_excitation_rate = 0
**.memory_energy_relaxation_rate = 0
**.memory_completely_mixed_rate = 0

**.EndToEndConnection = true
# Which traffic pattern?
# 1 = single connection from Node 1 to a random location in the network
# 2 = every node selects a random partner
**.TrafficPattern = 1
**.link_tomography = false
**.NumberOfResources = 1
**.initial_purification = 0
**.num_remote_purification = 0
**.purification_type = "R1_Single_X-R1_Single_Z"


[Config EntanglementSwapping_Purification_Star_Test]
network = networks.Realistic_Layer2_Star_Sep
sim-time-limit = 100s
seed-set = 1
**.number_of_bellpair = 7000
**.buffers = 100

**.tomography_output_filename = "ES_PUR_Star"


**.emission_success_probability = 1

**.Measurement_error_rate = 0
**.Measurement_x_error_ratio = 0
**.Measurement_y_error_ratio = 0
**.Measurement_z_error_ratio = 0


# Error on optical qubit in a channel
**.channel_loss_rate = 0 # per km. 1 - 10^(-0.2/10)
**.channel_x_error_rate = 0
**.channel_z_error_rate = 0
**.channel_y_error_rate = 0

**.memory_x_error_rate = 0
**.memory_y_error_rate = 0
**.memory_z_error_rate = 0
**.memory_energy_excitation_rate = 0
**.memory_energy_relaxation_rate = 0
**.memory_completely_mixed_rate = 0

**.EndToEndConnection = true
# Which traffic pattern?
# 1 = single connection from Node 1 to a random location in the network
# 2 = every node selects a random partner
**.TrafficPattern = 1
**.link_tomography = false
**.NumberOfResources = 1
**.initial_purification = 1
**.purification_type = "R1_Single_X-R1_Single_Z"


[Config Measurement7000_Layer2_Simple_MIM_MM_5km_Test]
network = networks.Realistic_Layer2_Simple_MIM_MM_5km
seed-set = 1
**.number_of_bellpair = 7000
**.buffers = 100

**.tomography_output_filename = "Realistic_Layer2_Simple_MIM_MM_5km_test"


**.emission_success_probability = 1


**.Measurement_error_rate = 0
**.Measurement_x_error_ratio = 1
**.Measurement_y_error_ratio = 1
**.Measurement_z_error_ratio = 1


# Error on optical qubit in a channel
**.channel_loss_rate = 0 # per km. 1 - 10^(-0.2/10)
**.channel_x_error_rate = 0.5
**.channel_z_error_rate = 0
**.channel_y_error_rate = 0

**.memory_x_error_rate = 0
**.memory_y_error_rate = 0
**.memory_z_error_rate = 0
**.memory_energy_excitation_rate = 0
**.memory_energy_relaxation_rate = 0
**.memory_completely_mixed_rate = 0

**.link_tomography = true
**.initial_purification = 1
**.purification_type = "R1_Single_XZ"




[Config Measurement7000_Layer2_Simple_MIM_MM_5km_XPuriri_memErr]
network = networks.Realistic_Layer2_Simple_MIM_MM_5km
seed-set = ${0..49}
**.number_of_bellpair = 7000
**.buffers = 100

**.tomography_output_filename = "Realistic_Layer2_Simple_MIM_MM_5km_XPuriri_memErr"


# **.emission_success_probability = 0.46*0.49
**.emission_success_probability = 1.0

# Error on optical qubit in a channel
#**.channel_loss_rate = 0.04500741397 # per km. 1 - 10^(-0.2/10)
**.channel_loss_rate = 0.0 # per km. 1 - 10^(-0.2/10)
**.channel_x_error_rate = 0.0
**.channel_z_error_rate = 0.0
**.channel_y_error_rate = 0.0

**.link_tomography = true
**.initial_purification = 1
**.x_purification = true
**.z_purification = false

**.h_gate_error_rate = 0
**.h_gate_x_error_ratio = 0
**.h_gate_y_error_ratio = 0
**.h_gate_z_error_ratio = 0

**.Measurement_error_rate = 0.05
**.Measurement_x_error_ratio = 1
**.Measurement_y_error_ratio = 0
**.Measurement_z_error_ratio = 0

**.x_gate_error_rate = 0
**.x_gate_x_error_ratio = 0
**.x_gate_y_error_ratio = 0
**.x_gate_z_error_ratio = 0

**.z_gate_error_rate = 0
**.z_gate_x_error_ratio = 0
**.z_gate_y_error_ratio = 0
**.z_gate_z_error_ratio = 0


#Error on Target, Error on Controlled
**.cnot_gate_error_rate = 0
**.cnot_gate_iz_error_ratio = 0 #checked
**.cnot_gate_zi_error_ratio = 0 #checked
**.cnot_gate_zz_error_ratio = 0 #checked
**.cnot_gate_ix_error_ratio = 0 #checked
**.cnot_gate_xi_error_ratio = 0 #checked
**.cnot_gate_xx_error_ratio = 0 #checked
**.cnot_gate_iy_error_ratio = 0 #checked
**.cnot_gate_yi_error_ratio = 0 #checked
**.cnot_gate_yy_error_ratio = 0 #checked

**.memory_x_error_rate = 0
**.memory_y_error_rate = 0
**.memory_z_error_rate = 0
**.memory_energy_excitation_rate = 0
**.memory_energy_relaxation_rate = 0
**.memory_completely_mixed_rate = 0

**.link_tomography = true
**.initial_purification = 1
**.x_purification = true
**.z_purification = false




[Config Measurement7000_Layer2_Simple_MIM_MM_10km_XPuriri_memErr]
network = networks.Realistic_Layer2_Simple_MIM_MM_10km
seed-set = ${0..49}
**.number_of_bellpair = 7000
**.buffers = 100

**.tomography_output_filename = "Realistic_Layer2_Simple_MIM_MM_10km_XPuriri_memErr"


**.emission_success_probability = 0.46*0.49

# Error on optical qubit in a channel
**.channel_loss_rate = 0.04500741397 # per km. 1 - 10^(-0.2/10)
**.channel_x_error_rate = 0.01
**.channel_z_error_rate = 0.01
**.channel_y_error_rate = 0.01

**.link_tomography = true
**.initial_purification = 1
**.x_purification = true
**.z_purification = false



[Config Measurement7000_Layer2_Simple_MIM_MM_20km_XPuriri_memErr]
network = networks.Realistic_Layer2_Simple_MIM_MM
seed-set = ${0..49}
**.number_of_bellpair = 7000
**.buffers = 100

**.tomography_output_filename = "Realistic_Layer2_Simple_MIM_MM_20km_XPuriri_memErr"


**.emission_success_probability = 0.46*0.49

# Error on optical qubit in a channel
**.channel_loss_rate = 0.04500741397 # per km. 1 - 10^(-0.2/10)
**.channel_x_error_rate = 0.01
**.channel_z_error_rate = 0.01
**.channel_y_error_rate = 0.01

**.link_tomography = true
**.initial_purification = 1
**.x_purification = true
**.z_purification = false



[Config Measurement7000_Layer2_Simple_MIM_MM_30km_XPuriri_memErr]
network = networks.Realistic_Layer2_Simple_MIM_MM_30km
seed-set = ${0..49}
**.number_of_bellpair = 7000
**.buffers = 100

**.tomography_output_filename = "Realistic_Layer2_Simple_MIM_MM_30km_XPuriri_memErr"


**.emission_success_probability = 0.46*0.49

# Error on optical qubit in a channel
**.channel_loss_rate = 0.04500741397 # per km. 1 - 10^(-0.2/10)
**.channel_x_error_rate = 0.01
**.channel_z_error_rate = 0.01
**.channel_y_error_rate = 0.01

**.link_tomography = true
**.initial_purification = 1
**.x_purification = true
**.z_purification = false




[Config Measurement7000_Layer2_Simple_MIM_MM_40km_XPuriri_memErr]
network = networks.Realistic_Layer2_Simple_MIM_MM_40km
seed-set = ${0..49}
**.number_of_bellpair = 7000
**.buffers = 100

**.tomography_output_filename = "Realistic_Layer2_Simple_MIM_MM_40km_XPuriri_memErr"


**.emission_success_probability = 0.46*0.49

# Error on optical qubit in a channel
**.channel_loss_rate = 0.04500741397 # per km. 1 - 10^(-0.2/10)
**.channel_x_error_rate = 0.01
**.channel_z_error_rate = 0.01
**.channel_y_error_rate = 0.01

**.link_tomography = true
**.initial_purification = 1
**.x_purification = true
**.z_purification = false





[Config Measurement7000_Layer2_Simple_MIM_MM_50km_XPuriri_memErr]
network = networks.Realistic_Layer2_Simple_MIM_MM_50km
seed-set = ${0..49}
**.number_of_bellpair = 7000
**.buffers = 100

**.tomography_output_filename = "Realistic_Layer2_Simple_MIM_MM_50km_XPuriri_memErr"


**.emission_success_probability = 0.46*0.49

# Error on optical qubit in a channel
**.channel_loss_rate = 0.04500741397 # per km. 1 - 10^(-0.2/10)
**.channel_x_error_rate = 0.01
**.channel_z_error_rate = 0.01
**.channel_y_error_rate = 0.01

**.link_tomography = true
**.initial_purification = 1
**.x_purification = true
**.z_purification = false



[Config Measurement7000_Layer2_Simple_MIM_MM_20km_Puri_low_memErr_20t24]
network = networks.Realistic_Layer2_Simple_MIM_MM
seed-set = ${20..24}
**.number_of_bellpair = 7000
**.buffers = 100

**.tomography_output_filename = "Fixed_Layer2_Simple_MIM_MM_20km_DSXZPuri_low_memErr_20t24"


**.emission_success_probability = 0.46*0.49

# Error on optical qubit in a channel
**.channel_loss_rate = 0.04500741397 # per km. 1 - 10^(-0.2/10)
**.channel_x_error_rate = 0.01
**.channel_z_error_rate = 0.01
**.channel_y_error_rate = 0.01

**.link_tomography = true
**.initial_purification = 10
**.purification_type = "R1_Single_X-R1_Single_Z"
