[General]
seed-set = 1
sim-time-limit = 100s
**.emission_success_probability = 1
**.cmdenv-log-level = off
**.Speed_of_light_in_fiber = 205336.986301 km
**.Initial_notification_timing_buffer = 10 s #when to start the BSA timing notification.


[Config netwlinear-buf50-node100-connMIM-traf1-linkFalse-puri0-puri0-e2e_True-meas0-e2e_8000-lone0]
network=networks.linear_network
**.tomography_output_filename="/root/quisp/result_IEEE/simtime_pur_08emission_success/2022-04-23_08-49-28-IEEE_Quantum_Week/results/netwlinear-buf50-node100-connMIM-traf1-linkFalse-puri0-puri0-e2e_True-meas0-e2e_8000-lone0"
**.beffers=50
linear_network.numNodes=100
linear_network.connectionType="MIM"
**.app.TrafficPattern=1
**.qrsa.hm.link_tomography=false
**.qrsa.hm.initial_purification=0
**.qrsa.hm.Purification_type=0
**.app.EndToEndconnection=true
**.qrsa.hm.num_measure=0
**.app.distant_measure_count=8000
**.app.LoneInitiatorAddress=0
