[General]
network = Network
sim-time-limit = 900s
