[General]
**.num_measure = 7000
**.Hgate_error_rate = 0
**.Hgate_X_error_ratio = 0
**.Hgate_Y_error_ratio = 0
**.Hgate_Z_error_ratio = 0
**.Measurement_error_rate = 0
**.Measurement_X_error_ratio = 0
**.Measurement_Y_error_ratio = 0
**.Measurement_Z_error_ratio = 0
**.Xgate_error_rate = 0
**.Xgate_X_error_ratio = 0
**.Xgate_Y_error_ratio = 0
**.Xgate_Z_error_ratio = 0    
**.Zgate_error_rate = 0
**.Zgate_X_error_ratio = 0
**.Zgate_Y_error_ratio = 0
**.Zgate_Z_error_ratio = 0
#Error on Target, Error on Controlled
**.CNOTgate_error_rate = 0
**.CNOTgate_IZ_error_ratio = 0 #checked
**.CNOTgate_ZI_error_ratio = 0 #checked
**.CNOTgate_ZZ_error_ratio = 0 #checked
**.CNOTgate_IX_error_ratio = 0 #checked
**.CNOTgate_XI_error_ratio = 0 #checked
**.CNOTgate_XX_error_ratio = 0 #checked
**.CNOTgate_IY_error_ratio = 0 #checked
**.CNOTgate_YI_error_ratio = 0 #checked
**.CNOTgate_YY_error_ratio = 0 #checked
**.memory_X_error_rate = 0 #ratio. Not the error rate!!
**.memory_Y_error_rate = 0 #ratio. Not the error rate!!
**.memory_Z_error_rate = 0 #ratio. Not the error rate!! By default the ratio is 1:1:1
**.memory_energy_excitation_rate = 0
**.memory_energy_relaxation_rate = 0
**.memory_completely_mixed_rate = 0
# Error on optical qubit in a channel
**.channel_Loss_error_rate = 0 # per km. 1 - 10^(-0.2/10)
**.channel_X_error_rate = 0 #ratio. Not the error rate!! By default the ratio is 1:1:1
**.channel_Z_error_rate = 0 #ratio. Not the error rate!!
**.channel_Y_error_rate = 0 #ratio. Not the error rate!!
# Internal HoM in QNIC
**.internal_hom_loss_rate = 0
**.internal_hom_error_rate = 0 #Not inplemented
**.internal_hom_required_precision = 1.5e-9 #Schuck et al., PRL 96,
**.internal_hom_photon_detection_per_sec = 1000000000
**.internal_hom_darkcount_probability = 0 #10/s * 10^-9
#Stand-alone HoM in the network
**.hom_loss_rate = 0
**.hom_error_rate = 0 #Not inplemented
**.hom_required_precision = 1.5e-9 #Schuck et al., PRL 96,
**.hom_photon_detection_per_sec = 1000000000
**.hom_darkcount_probability = 10e-8 #1%
**.Initial_notification_timing_buffer = 10 s #when to start the BSA timing notification.
**.EndToEndConnection = true
**.TrafficPattern = 2
**.LoneInitiatorAddress = 1
**.entanglement_swapping_with_purification = false
**.link_tomography = false
**.distant_measure_count = 7000
**.initial_purification = 0
**.Purification_type = 2002

[Config validation_network]
network = validation_network_mm
repeat = 10
seed-set = ${repetition}
sim-time-limit = 13s
**.emission_success_probability = 1
**.buffers = 50

**.tomography_output_filename = "Validate network distance"
**.num_remote_purification = 1

**.channel_Loss_error_rate = 0 # per km. 1 - 10^(-0.2/10)
**.channel_X_error_rate = 0.02 #ratio. Not the error rate!! By default the ratio is 1:1:1
**.channel_Z_error_rate = 0#ratio. Not the error rate!!
**.channel_Y_error_rate = 0 #ratio. Not the error rate!!

**.memory_X_error_rate = 0 #ratio. Not the error rate!!
**.memory_Y_error_rate = 0 #ratio. Not the error rate!!
**.memory_Z_error_rate = 0 #ratio. Not the error rate!! By default the ratio is 1:1:1

**.entanglement_swapping_with_purification = false


[Config validation_network_two_nodes]
network = validation_network_two_nodes
sim-time-limit = 13s
**.emission_success_probability = 1
**.buffers = 50

**.tomography_output_filename = "Validate network"


**.channel_Loss_error_rate = 0 # per km. 1 - 10^(-0.2/10)
**.channel_X_error_rate = 0.001 #ratio. Not the error rate!! By default the ratio is 1:1:1
**.channel_Z_error_rate = 0#ratio. Not the error rate!!
**.channel_Y_error_rate = 0 #ratio. Not the error rate!!

**.memory_X_error_rate = 0 #ratio. Not the error rate!!
**.memory_Y_error_rate = 0 #ratio. Not the error rate!!
**.memory_Z_error_rate = 0 #ratio. Not the error rate!! By default the ratio is 1:1:1

**.entanglement_swapping_with_purification = true