[General]
repeat = 200
seed-set = ${repetition}
sim-time-limit = 20s
**.initial_notification_timing_buffer = 10s # when to start the BSA timing notification.
**.app.request_generation_interval = 2s
**.logger.enabled_log = false
**.logger.log_filename = "${resultdir}/${configname}-${runnumber}.jsonl"
**.tomography_output_filename = "${resultdir}/${configname}.output"
**.statistic-recording = false
**.scalar-recording = false
**.vector-recording = false
**.speed_of_light_in_fiber = 208189.206944km

**.channel_loss_rate = 0.04500741397 # per km. 1 - 10^(-0.2/10)
**.channel_x_error_rate = 0
**.channel_z_error_rate = 0
**.channel_y_error_rate = 0

**.collection_efficiency = 1
**.darkcount_probability = 0
**.detection_efficiency = 1
**.indistinguishable_time_window = 1.5ns
**.photon_detection_per_second = 1000000000 # 1GHz

**.x_gate_error_rate = 0
**.x_gate_x_error_ratio = 0
**.x_gate_y_error_ratio = 0
**.x_gate_z_error_ratio = 0

**.z_gate_error_rate = 0
**.z_gate_x_error_ratio = 0
**.z_gate_y_error_ratio = 0
**.z_gate_z_error_ratio = 0

**.cnot_gate_error_rate = 0
**.cnot_gate_iz_error_ratio = 0
**.cnot_gate_zi_error_ratio = 0
**.cnot_gate_zz_error_ratio = 0
**.cnot_gate_ix_error_ratio = 0
**.cnot_gate_xi_error_ratio = 0
**.cnot_gate_xx_error_ratio = 0
**.cnot_gate_iy_error_ratio = 0
**.cnot_gate_yi_error_ratio = 0
**.cnot_gate_yy_error_ratio = 0

**.memory_x_error_rate = 0
**.memory_y_error_rate = 0
**.memory_z_error_rate = 0
**.memory_energy_excitation_rate = 0
**.memory_energy_relaxation_rate = 0
**.memory_completely_mixed_rate = 0

**.x_measurement_error_rate = 0
**.z_measurement_error_rate = 0
**.y_measurement_error_rate = 0

**.app.number_of_bellpair = 1000
**.buffers = 1
**.qrsa.hm.num_measure = 1000

[Config mim_imbalanced_10_10]
network = networks.cross_validation_mim_link_imbalanced_10_10
**.qrsa.hm.link_tomography = true
**.qrsa.hm.initial_purification = 0
**.qrsa.hm.purification_type = ""
**.buffers = 1

[Config mim_imbalanced_11_9]
network = networks.cross_validation_mim_link_imbalanced_11_9
**.qrsa.hm.link_tomography = true
**.qrsa.hm.initial_purification = 0
**.qrsa.hm.purification_type = ""
**.buffers = 1

[Config mim_imbalanced_12_8]
network = networks.cross_validation_mim_link_imbalanced_12_8
**.qrsa.hm.link_tomography = true
**.qrsa.hm.initial_purification = 0
**.qrsa.hm.purification_type = ""
**.buffers = 1

[Config mim_imbalanced_13_7]
network = networks.cross_validation_mim_link_imbalanced_13_7
**.qrsa.hm.link_tomography = true
**.qrsa.hm.initial_purification = 0
**.qrsa.hm.purification_type = ""
**.buffers = 1

[Config mim_imbalanced_14_6]
network = networks.cross_validation_mim_link_imbalanced_14_6
**.qrsa.hm.link_tomography = true
**.qrsa.hm.initial_purification = 0
**.qrsa.hm.purification_type = ""
**.buffers = 1

[Config mim_imbalanced_15_5]
network = networks.cross_validation_mim_link_imbalanced_15_5
**.qrsa.hm.link_tomography = true
**.qrsa.hm.initial_purification = 0
**.qrsa.hm.purification_type = ""
**.buffers = 1

[Config mim_imbalanced_16_4]
network = networks.cross_validation_mim_link_imbalanced_16_4
**.qrsa.hm.link_tomography = true
**.qrsa.hm.initial_purification = 0
**.qrsa.hm.purification_type = ""
**.buffers = 1

[Config mim_imbalanced_17_3]
network = networks.cross_validation_mim_link_imbalanced_17_3
**.qrsa.hm.link_tomography = true
**.qrsa.hm.initial_purification = 0
**.qrsa.hm.purification_type = ""
**.buffers = 1

[Config mim_imbalanced_18_2]
network = networks.cross_validation_mim_link_imbalanced_18_2
**.qrsa.hm.link_tomography = true
**.qrsa.hm.initial_purification = 0
**.qrsa.hm.purification_type = ""
**.buffers = 1

[Config mim_imbalanced_19_1]
network = networks.cross_validation_mim_link_imbalanced_19_1
**.qrsa.hm.link_tomography = true
**.qrsa.hm.initial_purification = 0
**.qrsa.hm.purification_type = ""
**.buffers = 1

[Config mim_imbalanced_20_0]
network = networks.cross_validation_mim_link_imbalanced_20_0
**.qrsa.hm.link_tomography = true
**.qrsa.hm.initial_purification = 0
**.qrsa.hm.purification_type = ""
**.buffers = 1
