[General]
repeat = 100
seed-set =  ${repetition}
sim-time-limit = 10.4s
**.initial_notification_timing_buffer = 10s # when to start the BSA timing notification.
**.app.request_generation_interval = 2s
**.logger.enabled_log = false
**.logger.log_filename = "simulations/results/${configname}.jsonl"
**.tomography_output_filename = "simulations/results/${configname}/${runnumber}.output"

**.statistic-recording = false
**.scalar-recording = false
**.vector-recording = false
**.speed_of_light_in_fiber = 208189.206944km

**.channel_loss_rate = 0.04500741397 # per km. 1 - 10^(-0.2/10)
**.channel_x_error_rate = 0
**.channel_z_error_rate = 0
**.channel_y_error_rate = 0

**.collection_efficiency = 1
**.darkcount_probability = 0
**.detection_efficiency = 1
**.indistinguishable_time_window = 1.5ns
**.photon_detection_per_second = 1000000

**.x_gate_error_rate = 0
**.x_gate_x_error_ratio = 0
**.x_gate_y_error_ratio = 0
**.x_gate_z_error_ratio = 0

**.z_gate_error_rate = 0
**.z_gate_x_error_ratio = 0
**.z_gate_y_error_ratio = 0
**.z_gate_z_error_ratio = 0

**.cnot_gate_error_rate = 0
**.cnot_gate_iz_error_ratio = 0
**.cnot_gate_zi_error_ratio = 0
**.cnot_gate_zz_error_ratio = 0
**.cnot_gate_ix_error_ratio = 0
**.cnot_gate_xi_error_ratio = 0
**.cnot_gate_xx_error_ratio = 0
**.cnot_gate_iy_error_ratio = 0
**.cnot_gate_yi_error_ratio = 0
**.cnot_gate_yy_error_ratio = 0

**.memory_x_error_rate = 0
**.memory_y_error_rate = 0
**.memory_z_error_rate = 0
**.memory_energy_excitation_rate = 0
**.memory_energy_relaxation_rate = 0
**.memory_completely_mixed_rate = 0

**.x_measurement_error_rate = 0
**.z_measurement_error_rate = 0
**.y_measurement_error_rate = 0

**.app.number_of_bellpair = 1000
**.buffers = 1
**.qrsa.hm.num_measure = 1000

# 1 mem
[Config mim_ten_na_one]
network = networks.Var_MIM
**.qrsa.hm.link_tomography = false
**.qrsa.hm.initial_purification = 0
**.qrsa.hm.purification_type = 0
*.EndNode1.is_initiator = true
**.adaptive_epps = false
*.classicalDistance = 10m
*.quantumDistance = 10m

[Config mim_hun_na_one]
network = networks.Var_MIM
**.qrsa.hm.link_tomography = false
**.qrsa.hm.initial_purification = 0
**.qrsa.hm.purification_type = 0
*.EndNode1.is_initiator = true
**.adaptive_epps = false
*.classicalDistance = 100m
*.quantumDistance = 100m

[Config mim_ten_a_one]
network = networks.Var_MIM
**.qrsa.hm.link_tomography = false
**.qrsa.hm.initial_purification = 0
**.qrsa.hm.purification_type = 0
*.EndNode1.is_initiator = true
**.adaptive_epps = true
*.classicalDistance = 10m
*.quantumDistance = 10m

[Config mim_hun_a_one]
network = networks.Var_MIM
**.qrsa.hm.link_tomography = false
**.qrsa.hm.initial_purification = 0
**.qrsa.hm.purification_type = 0
*.EndNode1.is_initiator = true
**.adaptive_epps = true
*.classicalDistance = 100m
*.quantumDistance = 100m

[Config msm_ten_na_one]
network = networks.Var_MSM
**.qrsa.hm.link_tomography = false
**.qrsa.hm.initial_purification = 0
**.qrsa.hm.purification_type = 0
*.EndNode1.is_initiator = true
**.adaptive_epps = false
*.classicalDistance = 10m
*.quantumDistance = 10m

[Config msm_hun_na_one]
network = networks.Var_MSM
**.qrsa.hm.link_tomography = false
**.qrsa.hm.initial_purification = 0
**.qrsa.hm.purification_type = 0
*.EndNode1.is_initiator = true
**.adaptive_epps = false
*.classicalDistance = 100m
*.quantumDistance = 100m

[Config msm_ten_a_one]
network = networks.Var_MSM
**.qrsa.hm.link_tomography = false
**.qrsa.hm.initial_purification = 0
**.qrsa.hm.purification_type = 0
*.EndNode1.is_initiator = true
**.adaptive_epps = true
*.classicalDistance = 10m
*.quantumDistance = 10m

[Config msm_hun_a_one]
network = networks.Var_MSM
**.qrsa.hm.link_tomography = false
**.qrsa.hm.initial_purification = 0
**.qrsa.hm.purification_type = 0
*.EndNode1.is_initiator = true
**.adaptive_epps = true
*.classicalDistance = 100m
*.quantumDistance = 100m

## 2 mem

[Config mim_ten_na_two]
network = networks.Var_MIM
**.qrsa.hm.link_tomography = false
**.qrsa.hm.initial_purification = 0
**.qrsa.hm.purification_type = 0
*.EndNode1.is_initiator = true
**.adaptive_epps = false
*.classicalDistance = 10m
*.quantumDistance = 10m
**.buffers = 2

[Config mim_hun_na_two]
network = networks.Var_MIM
**.qrsa.hm.link_tomography = false
**.qrsa.hm.initial_purification = 0
**.qrsa.hm.purification_type = 0
*.EndNode1.is_initiator = true
**.adaptive_epps = false
*.classicalDistance = 100m
*.quantumDistance = 100m
**.buffers = 2

[Config mim_ten_a_two]
network = networks.Var_MIM
**.qrsa.hm.link_tomography = false
**.qrsa.hm.initial_purification = 0
**.qrsa.hm.purification_type = 0
*.EndNode1.is_initiator = true
**.adaptive_epps = true
*.classicalDistance = 10m
*.quantumDistance = 10m
**.buffers = 2

[Config mim_hun_a_two]
network = networks.Var_MIM
**.qrsa.hm.link_tomography = false
**.qrsa.hm.initial_purification = 0
**.qrsa.hm.purification_type = 0
*.EndNode1.is_initiator = true
**.adaptive_epps = true
*.classicalDistance = 100m
*.quantumDistance = 100m
**.buffers = 2

[Config msm_ten_na_two]
network = networks.Var_MSM
**.qrsa.hm.link_tomography = false
**.qrsa.hm.initial_purification = 0
**.qrsa.hm.purification_type = 0
*.EndNode1.is_initiator = true
**.adaptive_epps = false
*.classicalDistance = 10m
*.quantumDistance = 10m
**.buffers = 2

[Config msm_hun_na_two]
network = networks.Var_MSM
**.qrsa.hm.link_tomography = false
**.qrsa.hm.initial_purification = 0
**.qrsa.hm.purification_type = 0
*.EndNode1.is_initiator = true
**.adaptive_epps = false
*.classicalDistance = 100m
*.quantumDistance = 100m
**.buffers = 2

[Config msm_ten_a_two]
network = networks.Var_MSM
**.qrsa.hm.link_tomography = false
**.qrsa.hm.initial_purification = 0
**.qrsa.hm.purification_type = 0
*.EndNode1.is_initiator = true
**.adaptive_epps = true
*.classicalDistance = 10m
*.quantumDistance = 10m
**.buffers = 2

[Config msm_hun_a_two]
network = networks.Var_MSM
**.qrsa.hm.link_tomography = false
**.qrsa.hm.initial_purification = 0
**.qrsa.hm.purification_type = 0
*.EndNode1.is_initiator = true
**.adaptive_epps = true
*.classicalDistance = 100m
*.quantumDistance = 100m
**.buffers = 2

## four mem

[Config mim_ten_na_four]
network = networks.Var_MIM
**.qrsa.hm.link_tomography = false
**.qrsa.hm.initial_purification = 0
**.qrsa.hm.purification_type = 0
*.EndNode1.is_initiator = true
**.adaptive_epps = false
*.classicalDistance = 10m
*.quantumDistance = 10m
**.buffers = 4

[Config mim_hun_na_four]
network = networks.Var_MIM
**.qrsa.hm.link_tomography = false
**.qrsa.hm.initial_purification = 0
**.qrsa.hm.purification_type = 0
*.EndNode1.is_initiator = true
**.adaptive_epps = false
*.classicalDistance = 100m
*.quantumDistance = 100m
**.buffers = 4

[Config mim_ten_a_four]
network = networks.Var_MIM
**.qrsa.hm.link_tomography = false
**.qrsa.hm.initial_purification = 0
**.qrsa.hm.purification_type = 0
*.EndNode1.is_initiator = true
**.adaptive_epps = true
*.classicalDistance = 10m
*.quantumDistance = 10m
**.buffers = 4

[Config mim_hun_a_four]
network = networks.Var_MIM
**.qrsa.hm.link_tomography = false
**.qrsa.hm.initial_purification = 0
**.qrsa.hm.purification_type = 0
*.EndNode1.is_initiator = true
**.adaptive_epps = true
*.classicalDistance = 100m
*.quantumDistance = 100m
**.buffers = 4

[Config msm_ten_na_four]
network = networks.Var_MSM
**.qrsa.hm.link_tomography = false
**.qrsa.hm.initial_purification = 0
**.qrsa.hm.purification_type = 0
*.EndNode1.is_initiator = true
**.adaptive_epps = false
*.classicalDistance = 10m
*.quantumDistance = 10m
**.buffers = 4

[Config msm_hun_na_four]
network = networks.Var_MSM
**.qrsa.hm.link_tomography = false
**.qrsa.hm.initial_purification = 0
**.qrsa.hm.purification_type = 0
*.EndNode1.is_initiator = true
**.adaptive_epps = false
*.classicalDistance = 100m
*.quantumDistance = 100m
**.buffers = 4

[Config msm_ten_a_four]
network = networks.Var_MSM
**.qrsa.hm.link_tomography = false
**.qrsa.hm.initial_purification = 0
**.qrsa.hm.purification_type = 0
*.EndNode1.is_initiator = true
**.adaptive_epps = true
*.classicalDistance = 10m
*.quantumDistance = 10m
**.buffers = 4

[Config msm_hun_a_four]
network = networks.Var_MSM
**.qrsa.hm.link_tomography = false
**.qrsa.hm.initial_purification = 0
**.qrsa.hm.purification_type = 0
*.EndNode1.is_initiator = true
**.adaptive_epps = true
*.classicalDistance = 100m
*.quantumDistance = 100m
**.buffers = 4

## eight mem

[Config mim_ten_na_eight]
network = networks.Var_MIM
**.qrsa.hm.link_tomography = false
**.qrsa.hm.initial_purification = 0
**.qrsa.hm.purification_type = 0
*.EndNode1.is_initiator = true
**.adaptive_epps = false
*.classicalDistance = 10m
*.quantumDistance = 10m
**.buffers = 8

[Config mim_hun_na_eight]
network = networks.Var_MIM
**.qrsa.hm.link_tomography = false
**.qrsa.hm.initial_purification = 0
**.qrsa.hm.purification_type = 0
*.EndNode1.is_initiator = true
**.adaptive_epps = false
*.classicalDistance = 100m
*.quantumDistance = 100m
**.buffers = 8

[Config mim_ten_a_eight]
network = networks.Var_MIM
**.qrsa.hm.link_tomography = false
**.qrsa.hm.initial_purification = 0
**.qrsa.hm.purification_type = 0
*.EndNode1.is_initiator = true
**.adaptive_epps = true
*.classicalDistance = 10m
*.quantumDistance = 10m
**.buffers = 8

[Config mim_hun_a_eight]
network = networks.Var_MIM
**.qrsa.hm.link_tomography = false
**.qrsa.hm.initial_purification = 0
**.qrsa.hm.purification_type = 0
*.EndNode1.is_initiator = true
**.adaptive_epps = true
*.classicalDistance = 100m
*.quantumDistance = 100m
**.buffers = 8

[Config msm_ten_na_eight]
network = networks.Var_MSM
**.qrsa.hm.link_tomography = false
**.qrsa.hm.initial_purification = 0
**.qrsa.hm.purification_type = 0
*.EndNode1.is_initiator = true
**.adaptive_epps = false
*.classicalDistance = 10m
*.quantumDistance = 10m
**.buffers = 8

[Config msm_hun_na_eight]
network = networks.Var_MSM
**.qrsa.hm.link_tomography = false
**.qrsa.hm.initial_purification = 0
**.qrsa.hm.purification_type = 0
*.EndNode1.is_initiator = true
**.adaptive_epps = false
*.classicalDistance = 100m
*.quantumDistance = 100m
**.buffers = 8

[Config msm_ten_a_eight]
network = networks.Var_MSM
**.qrsa.hm.link_tomography = false
**.qrsa.hm.initial_purification = 0
**.qrsa.hm.purification_type = 0
*.EndNode1.is_initiator = true
**.adaptive_epps = true
*.classicalDistance = 10m
*.quantumDistance = 10m
**.buffers = 8

[Config msm_hun_a_eight]
network = networks.Var_MSM
**.qrsa.hm.link_tomography = false
**.qrsa.hm.initial_purification = 0
**.qrsa.hm.purification_type = 0
*.EndNode1.is_initiator = true
**.adaptive_epps = true
*.classicalDistance = 100m
*.quantumDistance = 100m
**.buffers = 8

## sixteen mem

[Config mim_ten_na_sixteen]
network = networks.Var_MIM
**.qrsa.hm.link_tomography = false
**.qrsa.hm.initial_purification = 0
**.qrsa.hm.purification_type = 0
*.EndNode1.is_initiator = true
**.adaptive_epps = false
*.classicalDistance = 10m
*.quantumDistance = 10m
**.buffers = 16

[Config mim_hun_na_sixteen]
network = networks.Var_MIM
**.qrsa.hm.link_tomography = false
**.qrsa.hm.initial_purification = 0
**.qrsa.hm.purification_type = 0
*.EndNode1.is_initiator = true
**.adaptive_epps = false
*.classicalDistance = 100m
*.quantumDistance = 100m
**.buffers = 16

[Config mim_ten_a_sixteen]
network = networks.Var_MIM
**.qrsa.hm.link_tomography = false
**.qrsa.hm.initial_purification = 0
**.qrsa.hm.purification_type = 0
*.EndNode1.is_initiator = true
**.adaptive_epps = true
*.classicalDistance = 10m
*.quantumDistance = 10m
**.buffers = 16

[Config mim_hun_a_sixteen]
network = networks.Var_MIM
**.qrsa.hm.link_tomography = false
**.qrsa.hm.initial_purification = 0
**.qrsa.hm.purification_type = 0
*.EndNode1.is_initiator = true
**.adaptive_epps = true
*.classicalDistance = 100m
*.quantumDistance = 100m
**.buffers = 16

[Config msm_ten_na_sixteen]
network = networks.Var_MSM
**.qrsa.hm.link_tomography = false
**.qrsa.hm.initial_purification = 0
**.qrsa.hm.purification_type = 0
*.EndNode1.is_initiator = true
**.adaptive_epps = false
*.classicalDistance = 10m
*.quantumDistance = 10m
**.buffers = 16

[Config msm_hun_na_sixteen]
network = networks.Var_MSM
**.qrsa.hm.link_tomography = false
**.qrsa.hm.initial_purification = 0
**.qrsa.hm.purification_type = 0
*.EndNode1.is_initiator = true
**.adaptive_epps = false
*.classicalDistance = 100m
*.quantumDistance = 100m
**.buffers = 16

[Config msm_ten_a_sixteen]
network = networks.Var_MSM
**.qrsa.hm.link_tomography = false
**.qrsa.hm.initial_purification = 0
**.qrsa.hm.purification_type = 0
*.EndNode1.is_initiator = true
**.adaptive_epps = true
*.classicalDistance = 10m
*.quantumDistance = 10m
**.buffers = 16

[Config msm_hun_a_sixteen]
network = networks.Var_MSM
**.qrsa.hm.link_tomography = false
**.qrsa.hm.initial_purification = 0
**.qrsa.hm.purification_type = 0
*.EndNode1.is_initiator = true
**.adaptive_epps = true
*.classicalDistance = 100m
*.quantumDistance = 100m
**.buffers = 16

## thirtytwo mem

[Config mim_ten_na_thirtytwo]
network = networks.Var_MIM
**.qrsa.hm.link_tomography = false
**.qrsa.hm.initial_purification = 0
**.qrsa.hm.purification_type = 0
*.EndNode1.is_initiator = true
**.adaptive_epps = false
*.classicalDistance = 10m
*.quantumDistance = 10m
**.buffers = 32

[Config mim_hun_na_thirtytwo]
network = networks.Var_MIM
**.qrsa.hm.link_tomography = false
**.qrsa.hm.initial_purification = 0
**.qrsa.hm.purification_type = 0
*.EndNode1.is_initiator = true
**.adaptive_epps = false
*.classicalDistance = 100m
*.quantumDistance = 100m
**.buffers = 32

[Config mim_ten_a_thirtytwo]
network = networks.Var_MIM
**.qrsa.hm.link_tomography = false
**.qrsa.hm.initial_purification = 0
**.qrsa.hm.purification_type = 0
*.EndNode1.is_initiator = true
**.adaptive_epps = true
*.classicalDistance = 10m
*.quantumDistance = 10m
**.buffers = 32

[Config mim_hun_a_thirtytwo]
network = networks.Var_MIM
**.qrsa.hm.link_tomography = false
**.qrsa.hm.initial_purification = 0
**.qrsa.hm.purification_type = 0
*.EndNode1.is_initiator = true
**.adaptive_epps = true
*.classicalDistance = 100m
*.quantumDistance = 100m
**.buffers = 32

[Config msm_ten_na_thirtytwo]
network = networks.Var_MSM
**.qrsa.hm.link_tomography = false
**.qrsa.hm.initial_purification = 0
**.qrsa.hm.purification_type = 0
*.EndNode1.is_initiator = true
**.adaptive_epps = false
*.classicalDistance = 10m
*.quantumDistance = 10m
**.buffers = 32

[Config msm_hun_na_thirtytwo]
network = networks.Var_MSM
**.qrsa.hm.link_tomography = false
**.qrsa.hm.initial_purification = 0
**.qrsa.hm.purification_type = 0
*.EndNode1.is_initiator = true
**.adaptive_epps = false
*.classicalDistance = 100m
*.quantumDistance = 100m
**.buffers = 32

[Config msm_ten_a_thirtytwo]
network = networks.Var_MSM
**.qrsa.hm.link_tomography = false
**.qrsa.hm.initial_purification = 0
**.qrsa.hm.purification_type = 0
*.EndNode1.is_initiator = true
**.adaptive_epps = true
*.classicalDistance = 10m
*.quantumDistance = 10m
**.buffers = 32

[Config msm_hun_a_thirtytwo]
network = networks.Var_MSM
**.qrsa.hm.link_tomography = false
**.qrsa.hm.initial_purification = 0
**.qrsa.hm.purification_type = 0
*.EndNode1.is_initiator = true
**.adaptive_epps = true
*.classicalDistance = 100m
*.quantumDistance = 100m
**.buffers = 32

## sixtyfour mem

[Config mim_ten_na_sixtyfour]
network = networks.Var_MIM
**.qrsa.hm.link_tomography = false
**.qrsa.hm.initial_purification = 0
**.qrsa.hm.purification_type = 0
*.EndNode1.is_initiator = true
**.adaptive_epps = false
*.classicalDistance = 10m
*.quantumDistance = 10m
**.buffers = 64

[Config mim_hun_na_sixtyfour]
network = networks.Var_MIM
**.qrsa.hm.link_tomography = false
**.qrsa.hm.initial_purification = 0
**.qrsa.hm.purification_type = 0
*.EndNode1.is_initiator = true
**.adaptive_epps = false
*.classicalDistance = 100m
*.quantumDistance = 100m
**.buffers = 64

[Config mim_ten_a_sixtyfour]
network = networks.Var_MIM
**.qrsa.hm.link_tomography = false
**.qrsa.hm.initial_purification = 0
**.qrsa.hm.purification_type = 0
*.EndNode1.is_initiator = true
**.adaptive_epps = true
*.classicalDistance = 10m
*.quantumDistance = 10m
**.buffers = 64

[Config mim_hun_a_sixtyfour]
network = networks.Var_MIM
**.qrsa.hm.link_tomography = false
**.qrsa.hm.initial_purification = 0
**.qrsa.hm.purification_type = 0
*.EndNode1.is_initiator = true
**.adaptive_epps = true
*.classicalDistance = 100m
*.quantumDistance = 100m
**.buffers = 64

[Config msm_ten_na_sixtyfour]
network = networks.Var_MSM
**.qrsa.hm.link_tomography = false
**.qrsa.hm.initial_purification = 0
**.qrsa.hm.purification_type = 0
*.EndNode1.is_initiator = true
**.adaptive_epps = false
*.classicalDistance = 10m
*.quantumDistance = 10m
**.buffers = 64

[Config msm_hun_na_sixtyfour]
network = networks.Var_MSM
**.qrsa.hm.link_tomography = false
**.qrsa.hm.initial_purification = 0
**.qrsa.hm.purification_type = 0
*.EndNode1.is_initiator = true
**.adaptive_epps = false
*.classicalDistance = 100m
*.quantumDistance = 100m
**.buffers = 64

[Config msm_ten_a_sixtyfour]
network = networks.Var_MSM
**.qrsa.hm.link_tomography = false
**.qrsa.hm.initial_purification = 0
**.qrsa.hm.purification_type = 0
*.EndNode1.is_initiator = true
**.adaptive_epps = true
*.classicalDistance = 10m
*.quantumDistance = 10m
**.buffers = 64

[Config msm_hun_a_sixtyfour]
network = networks.Var_MSM
**.qrsa.hm.link_tomography = false
**.qrsa.hm.initial_purification = 0
**.qrsa.hm.purification_type = 0
*.EndNode1.is_initiator = true
**.adaptive_epps = true
*.classicalDistance = 100m
*.quantumDistance = 100m
**.buffers = 64

## onehundredtwentyeight mem

[Config mim_ten_na_onehundredtwentyeight]
network = networks.Var_MIM
**.qrsa.hm.link_tomography = false
**.qrsa.hm.initial_purification = 0
**.qrsa.hm.purification_type = 0
*.EndNode1.is_initiator = true
**.adaptive_epps = false
*.classicalDistance = 10m
*.quantumDistance = 10m
**.buffers = 128

[Config mim_hun_na_onehundredtwentyeight]
network = networks.Var_MIM
**.qrsa.hm.link_tomography = false
**.qrsa.hm.initial_purification = 0
**.qrsa.hm.purification_type = 0
*.EndNode1.is_initiator = true
**.adaptive_epps = false
*.classicalDistance = 100m
*.quantumDistance = 100m
**.buffers = 128

[Config mim_ten_a_onehundredtwentyeight]
network = networks.Var_MIM
**.qrsa.hm.link_tomography = false
**.qrsa.hm.initial_purification = 0
**.qrsa.hm.purification_type = 0
*.EndNode1.is_initiator = true
**.adaptive_epps = true
*.classicalDistance = 10m
*.quantumDistance = 10m
**.buffers = 128

[Config mim_hun_a_onehundredtwentyeight]
network = networks.Var_MIM
**.qrsa.hm.link_tomography = false
**.qrsa.hm.initial_purification = 0
**.qrsa.hm.purification_type = 0
*.EndNode1.is_initiator = true
**.adaptive_epps = true
*.classicalDistance = 100m
*.quantumDistance = 100m
**.buffers = 128

[Config msm_ten_na_onehundredtwentyeight]
network = networks.Var_MSM
**.qrsa.hm.link_tomography = false
**.qrsa.hm.initial_purification = 0
**.qrsa.hm.purification_type = 0
*.EndNode1.is_initiator = true
**.adaptive_epps = false
*.classicalDistance = 10m
*.quantumDistance = 10m
**.buffers = 128

[Config msm_hun_na_onehundredtwentyeight]
network = networks.Var_MSM
**.qrsa.hm.link_tomography = false
**.qrsa.hm.initial_purification = 0
**.qrsa.hm.purification_type = 0
*.EndNode1.is_initiator = true
**.adaptive_epps = false
*.classicalDistance = 100m
*.quantumDistance = 100m
**.buffers = 128

[Config msm_ten_a_onehundredtwentyeight]
network = networks.Var_MSM
**.qrsa.hm.link_tomography = false
**.qrsa.hm.initial_purification = 0
**.qrsa.hm.purification_type = 0
*.EndNode1.is_initiator = true
**.adaptive_epps = true
*.classicalDistance = 10m
*.quantumDistance = 10m
**.buffers = 128

[Config msm_hun_a_onehundredtwentyeight]
network = networks.Var_MSM
**.qrsa.hm.link_tomography = false
**.qrsa.hm.initial_purification = 0
**.qrsa.hm.purification_type = 0
*.EndNode1.is_initiator = true
**.adaptive_epps = true
*.classicalDistance = 100m
*.quantumDistance = 100m
**.buffers = 128

## twohundredfiftysix mem

[Config mim_ten_na_twohundredfiftysix]
network = networks.Var_MIM
**.qrsa.hm.link_tomography = false
**.qrsa.hm.initial_purification = 0
**.qrsa.hm.purification_type = 0
*.EndNode1.is_initiator = true
**.adaptive_epps = false
*.classicalDistance = 10m
*.quantumDistance = 10m
**.buffers = 256

[Config mim_hun_na_twohundredfiftysix]
network = networks.Var_MIM
**.qrsa.hm.link_tomography = false
**.qrsa.hm.initial_purification = 0
**.qrsa.hm.purification_type = 0
*.EndNode1.is_initiator = true
**.adaptive_epps = false
*.classicalDistance = 100m
*.quantumDistance = 100m
**.buffers = 256

[Config mim_ten_a_twohundredfiftysix]
network = networks.Var_MIM
**.qrsa.hm.link_tomography = false
**.qrsa.hm.initial_purification = 0
**.qrsa.hm.purification_type = 0
*.EndNode1.is_initiator = true
**.adaptive_epps = true
*.classicalDistance = 10m
*.quantumDistance = 10m
**.buffers = 256

[Config mim_hun_a_twohundredfiftysix]
network = networks.Var_MIM
**.qrsa.hm.link_tomography = false
**.qrsa.hm.initial_purification = 0
**.qrsa.hm.purification_type = 0
*.EndNode1.is_initiator = true
**.adaptive_epps = true
*.classicalDistance = 100m
*.quantumDistance = 100m
**.buffers = 256

[Config msm_ten_na_twohundredfiftysix]
network = networks.Var_MSM
**.qrsa.hm.link_tomography = false
**.qrsa.hm.initial_purification = 0
**.qrsa.hm.purification_type = 0
*.EndNode1.is_initiator = true
**.adaptive_epps = false
*.classicalDistance = 10m
*.quantumDistance = 10m
**.buffers = 256

[Config msm_hun_na_twohundredfiftysix]
network = networks.Var_MSM
**.qrsa.hm.link_tomography = false
**.qrsa.hm.initial_purification = 0
**.qrsa.hm.purification_type = 0
*.EndNode1.is_initiator = true
**.adaptive_epps = false
*.classicalDistance = 100m
*.quantumDistance = 100m
**.buffers = 256

[Config msm_ten_a_twohundredfiftysix]
network = networks.Var_MSM
**.qrsa.hm.link_tomography = false
**.qrsa.hm.initial_purification = 0
**.qrsa.hm.purification_type = 0
*.EndNode1.is_initiator = true
**.adaptive_epps = true
*.classicalDistance = 10m
*.quantumDistance = 10m
**.buffers = 256

[Config msm_hun_a_twohundredfiftysix]
network = networks.Var_MSM
**.qrsa.hm.link_tomography = false
**.qrsa.hm.initial_purification = 0
**.qrsa.hm.purification_type = 0
*.EndNode1.is_initiator = true
**.adaptive_epps = true
*.classicalDistance = 100m
*.quantumDistance = 100m
**.buffers = 256

## fivehundredtwelve mem

[Config mim_ten_na_fivehundredtwelve]
network = networks.Var_MIM
**.qrsa.hm.link_tomography = false
**.qrsa.hm.initial_purification = 0
**.qrsa.hm.purification_type = 0
*.EndNode1.is_initiator = true
**.adaptive_epps = false
*.classicalDistance = 10m
*.quantumDistance = 10m
**.buffers = 512

[Config mim_hun_na_fivehundredtwelve]
network = networks.Var_MIM
**.qrsa.hm.link_tomography = false
**.qrsa.hm.initial_purification = 0
**.qrsa.hm.purification_type = 0
*.EndNode1.is_initiator = true
**.adaptive_epps = false
*.classicalDistance = 100m
*.quantumDistance = 100m
**.buffers = 512

[Config mim_ten_a_fivehundredtwelve]
network = networks.Var_MIM
**.qrsa.hm.link_tomography = false
**.qrsa.hm.initial_purification = 0
**.qrsa.hm.purification_type = 0
*.EndNode1.is_initiator = true
**.adaptive_epps = true
*.classicalDistance = 10m
*.quantumDistance = 10m
**.buffers = 512

[Config mim_hun_a_fivehundredtwelve]
network = networks.Var_MIM
**.qrsa.hm.link_tomography = false
**.qrsa.hm.initial_purification = 0
**.qrsa.hm.purification_type = 0
*.EndNode1.is_initiator = true
**.adaptive_epps = true
*.classicalDistance = 100m
*.quantumDistance = 100m
**.buffers = 512

[Config msm_ten_na_fivehundredtwelve]
network = networks.Var_MSM
**.qrsa.hm.link_tomography = false
**.qrsa.hm.initial_purification = 0
**.qrsa.hm.purification_type = 0
*.EndNode1.is_initiator = true
**.adaptive_epps = false
*.classicalDistance = 10m
*.quantumDistance = 10m
**.buffers = 512

[Config msm_hun_na_fivehundredtwelve]
network = networks.Var_MSM
**.qrsa.hm.link_tomography = false
**.qrsa.hm.initial_purification = 0
**.qrsa.hm.purification_type = 0
*.EndNode1.is_initiator = true
**.adaptive_epps = false
*.classicalDistance = 100m
*.quantumDistance = 100m
**.buffers = 512

[Config msm_ten_a_fivehundredtwelve]
network = networks.Var_MSM
**.qrsa.hm.link_tomography = false
**.qrsa.hm.initial_purification = 0
**.qrsa.hm.purification_type = 0
*.EndNode1.is_initiator = true
**.adaptive_epps = true
*.classicalDistance = 10m
*.quantumDistance = 10m
**.buffers = 512

[Config msm_hun_a_fivehundredtwelve]
network = networks.Var_MSM
**.qrsa.hm.link_tomography = false
**.qrsa.hm.initial_purification = 0
**.qrsa.hm.purification_type = 0
*.EndNode1.is_initiator = true
**.adaptive_epps = true
*.classicalDistance = 100m
*.quantumDistance = 100m
**.buffers = 512