[General]
repeat = 100
seed-set =  ${repetition}
sim-time-limit = 20s
**.initial_notification_timing_buffer = 10s # when to start the BSA timing notification.
**.app.request_generation_interval = 2s
**.logger.enabled_log = false
**.logger.log_filename = "simulations/results/${configname}.jsonl"
**.tomography_output_filename = "simulations/results/${configname}/${runnumber}.output"

**.statistic-recording = false
**.scalar-recording = false
**.vector-recording = false
**.speed_of_light_in_fiber = 208189.206944km

**.channel_loss_rate = 0.04500741397 # per km. 1 - 10^(-0.2/10)
**.channel_x_error_rate = 0
**.channel_z_error_rate = 0
**.channel_y_error_rate = 0

**.collection_efficiency = 1
**.darkcount_probability = 0
**.detection_efficiency = 1
**.indistinguishable_time_window = 1.5ns
**.photon_detection_per_second = 1000000

**.x_gate_error_rate = 0
**.x_gate_x_error_ratio = 0
**.x_gate_y_error_ratio = 0
**.x_gate_z_error_ratio = 0

**.z_gate_error_rate = 0
**.z_gate_x_error_ratio = 0
**.z_gate_y_error_ratio = 0
**.z_gate_z_error_ratio = 0

**.cnot_gate_error_rate = 0
**.cnot_gate_iz_error_ratio = 0
**.cnot_gate_zi_error_ratio = 0
**.cnot_gate_zz_error_ratio = 0
**.cnot_gate_ix_error_ratio = 0
**.cnot_gate_xi_error_ratio = 0
**.cnot_gate_xx_error_ratio = 0
**.cnot_gate_iy_error_ratio = 0
**.cnot_gate_yi_error_ratio = 0
**.cnot_gate_yy_error_ratio = 0

**.memory_x_error_rate = 0
**.memory_y_error_rate = 0
**.memory_z_error_rate = 0
**.memory_energy_excitation_rate = 0
**.memory_energy_relaxation_rate = 0
**.memory_completely_mixed_rate = 0

**.x_measurement_error_rate = 0
**.z_measurement_error_rate = 0
**.y_measurement_error_rate = 0

**.app.number_of_bellpair = 100
**.buffers = 32
**.qrsa.hm.num_measure = 100

[Config mxm_simple]
network = networks.MIM_MSM
**.qrsa.hm.link_tomography = false
**.qrsa.hm.initial_purification = 0
**.qrsa.hm.purification_type = 0
*.EndNode1.is_initiator = true

[Config mxm_simple_adaptive]
network = networks.MIM_MSM
**.qrsa.hm.link_tomography = false
**.qrsa.hm.initial_purification = 0
**.qrsa.hm.purification_type = 0
*.EndNode1.is_initiator = true
**.adaptive_epps = true

[Config mxm_long]
network = networks.MIM_MSM_long
**.qrsa.hm.link_tomography = false
**.qrsa.hm.initial_purification = 0
**.qrsa.hm.purification_type = 0
*.EndNode1.is_initiator = true

[Config mxm_long_adaptive]
network = networks.MIM_MSM_long
**.qrsa.hm.link_tomography = false
**.qrsa.hm.initial_purification = 0
**.qrsa.hm.purification_type = 0
*.EndNode1.is_initiator = true
**.adaptive_epps = true

[Config mim_simple]
network = networks.MIM_only
**.qrsa.hm.link_tomography = false
**.qrsa.hm.initial_purification = 0
**.qrsa.hm.purification_type = 0
*.EndNode1.is_initiator = true

[Config mim_long]
network = networks.MIM_only_long
**.qrsa.hm.link_tomography = false
**.qrsa.hm.initial_purification = 0
**.qrsa.hm.purification_type = 0
*.EndNode1.is_initiator = true

[Config msm_simple]
network = networks.MSM_only
**.qrsa.hm.link_tomography = false
**.qrsa.hm.initial_purification = 0
**.qrsa.hm.purification_type = 0
*.EndNode1.is_initiator = true

[Config msm_simple_adaptive]
network = networks.MSM_only
**.qrsa.hm.link_tomography = false
**.qrsa.hm.initial_purification = 0
**.qrsa.hm.purification_type = 0
*.EndNode1.is_initiator = true
**.adaptive_epps = true

[Config msm_long]
network = networks.MSM_only_long
**.qrsa.hm.link_tomography = false
**.qrsa.hm.initial_purification = 0
**.qrsa.hm.purification_type = 0
*.EndNode1.is_initiator = true

[Config msm_long_adaptive]
network = networks.MSM_only_long
**.qrsa.hm.link_tomography = false
**.qrsa.hm.initial_purification = 0
**.qrsa.hm.purification_type = 0
*.EndNode1.is_initiator = true
**.adaptive_epps = true
