[General]
seed-set = 0
sim-time-limit = 11s
**.initial_notification_timing_buffer = 10s # when to start the BSA timing notification.
**.app.request_generation_interval = 2s
**.logger.enabled_log = true
**.logger.log_filename = "networks/${resultdir}/${configname}-${runnumber}.jsonl"
**.tomography_output_filename = "${resultdir}/${configname}.output"
**.statistic-recording = false
**.scalar-recording = false
**.vector-recording = false
**.speed_of_light_in_fiber = 208189.206944km

**.channel_loss_rate = 0.04500741397 # per km. 1 - 10^(-0.2/10)
**.channel_x_error_rate = 0
**.channel_z_error_rate = 0
**.channel_y_error_rate = 0

**.collection_efficiency = 1
**.darkcount_probability = 0
**.detection_efficiency = 1
**.indistinguishable_time_window = 1.5ns
**.photon_detection_per_second = 1000000

**.x_gate_error_rate = 0
**.x_gate_x_error_ratio = 0
**.x_gate_y_error_ratio = 0
**.x_gate_z_error_ratio = 0

**.z_gate_error_rate = 0
**.z_gate_x_error_ratio = 0
**.z_gate_y_error_ratio = 0
**.z_gate_z_error_ratio = 0

**.cnot_gate_error_rate = 0
**.cnot_gate_iz_error_ratio = 0
**.cnot_gate_zi_error_ratio = 0
**.cnot_gate_zz_error_ratio = 0
**.cnot_gate_ix_error_ratio = 0
**.cnot_gate_xi_error_ratio = 0
**.cnot_gate_xx_error_ratio = 0
**.cnot_gate_iy_error_ratio = 0
**.cnot_gate_yi_error_ratio = 0
**.cnot_gate_yy_error_ratio = 0

**.memory_x_error_rate = 0
**.memory_y_error_rate = 0
**.memory_z_error_rate = 0
**.memory_energy_excitation_rate = 0
**.memory_energy_relaxation_rate = 0
**.memory_completely_mixed_rate = 0

**.x_measurement_error_rate = 0
**.z_measurement_error_rate = 0
**.y_measurement_error_rate = 0

**.app.number_of_bellpair = 1000
**.buffers = 128
**.qrsa.hm.num_measure = 1000

[Config Testing_MSM_one_memory]
network = networks.Testing_MSM
**.qrsa.hm.link_tomography = true
**.qrsa.hm.initial_purification = 0
**.qrsa.hm.purification_type = 0
**.buffers = 1

[Config Testing_MSM_two_memory]
network = networks.Testing_MSM
**.qrsa.hm.link_tomography = true
**.qrsa.hm.initial_purification = 0
**.qrsa.hm.purification_type = 0
**.buffers = 2

[Config Testing_MSM_four_memory]
network = networks.Testing_MSM
**.qrsa.hm.link_tomography = true
**.qrsa.hm.initial_purification = 0
**.qrsa.hm.purification_type = 0
**.buffers = 4

[Config Testing_MSM_eight_memory]
network = networks.Testing_MSM
**.qrsa.hm.link_tomography = true
**.qrsa.hm.initial_purification = 0
**.qrsa.hm.purification_type = 0
**.buffers = 8

[Config Testing_MSM_sixteen_memory]
network = networks.Testing_MSM
**.qrsa.hm.link_tomography = true
**.qrsa.hm.initial_purification = 0
**.qrsa.hm.purification_type = 0
**.buffers = 16

[Config Testing_MSM_thirtytwo_memory]
network = networks.Testing_MSM
**.qrsa.hm.link_tomography = true
**.qrsa.hm.initial_purification = 0
**.qrsa.hm.purification_type = 0
**.buffers = 32

[Config Testing_MSM_sixtyfour_memory]
network = networks.Testing_MSM
**.qrsa.hm.link_tomography = true
**.qrsa.hm.initial_purification = 0
**.qrsa.hm.purification_type = 0
**.buffers = 64

[Config Testing_MSM_onetwoeight_memory]
network = networks.Testing_MSM
**.qrsa.hm.link_tomography = true
**.qrsa.hm.initial_purification = 0
**.qrsa.hm.purification_type = 0
**.buffers = 128

[Config MSM_ES_Four]
network = networks.MSM_ES_Four
seed-set = 0
*.EndNode1.is_initiator = true
**.possible_recipients = 4
**.buffers = 1
**.link_tomography = false
**.initial_purification = 0
**.qrsa.hm.purification_type = 0
