[General]
seed-set = 1
sim-time-limit = 20s
**.logger.enabled_log = false
**.logger.log_filename = "networks/${resultdir}/${configname}-${runnumber}.jsonl"
**.statistic-recording = false
**.scalar-recording = false
**.vector-recording = false
**.speed_of_light_in_fiber = 208189.206944km
**.num_buffer = 100

[Config NoErrorMIM]
network = networks.Simple_MIM
**.app.number_of_bellpair = 100
**.qrsa.hm.link_tomography = true
**.qrsa.hm.initial_purification = 0
**.qrsa.hm.purification_type = 0

